@<TRIPOS>MOLECULE
23
67   71    1
SMALL
USER_CHARGES


@<TRIPOS>ATOM
      1 C         -12.5545   -3.8379   12.6986 C.ar      1 ****        0.8740 
      2 C         -10.3667   -3.3679   12.2596 C.ar      1 ****        0.5490 
      3 C         -10.2820   -4.4989   11.4187 C.ar      1 ****       -0.6070 
      4 C         -11.4539   -5.2835   11.3071 C.ar      1 ****        0.8640 
      5 N         -11.5050   -3.0413   12.9021 N.ar      1 ****       -0.8390 
      6 N         -12.5919   -4.9351   11.9445 N.ar      1 ****       -0.8390 
      7 N          -8.0601   -3.6770   10.6286 N.am      1 ****       -0.1400 
      8 C          -8.9942   -4.8103   10.6547 C.3       1 ****        0.0650 
      9 H          -8.4889   -5.6476   11.1361 H         1 ****        0.0600 
     10 H          -9.2551   -5.1506    9.6505 H         1 ****        0.0600 
     11 C          -9.1671   -2.4549   12.4612 C.3       1 ****       -0.0050 
     12 C          -7.8561   -3.0955   11.9639 C.3       1 ****       -0.0500 
     13 C          -6.4803   -2.1514    9.5446 C.ar      1 ****       -0.1150 
     14 C          -6.6835   -0.8328    9.0935 C.ar      1 ****       -0.1150 
     15 C          -5.2050   -2.5390   10.0014 C.ar      1 ****       -0.1150 
     16 C          -5.6133    0.0819    9.0806 C.ar      1 ****       -0.1150 
     17 C          -4.1414   -1.6191    9.9900 C.ar      1 ****       -0.1150 
     18 H          -5.0325   -3.5493   10.3449 H         1 ****        0.1150 
     19 C          -4.3226   -0.2992    9.5165 C.ar      1 ****        0.0000 
     20 H          -3.1751   -1.9452   10.3452 H         1 ****        0.1150 
     21 H          -5.7865    1.0799    8.7048 H         1 ****        0.1150 
     22 C          -7.5906   -3.1535    9.4689 C.2       1 ****        0.6150 
     23 O          -7.9880   -3.4902    8.3523 O.2       1 ****       -0.5000 
     24 H          -7.6602   -0.5219    8.7503 H         1 ****        0.1150 
     25 C          -3.1874    0.6459    9.4594 C.ar      1 ****        0.0000 
     26 C          -3.3819    2.0358    9.6346 C.ar      1 ****       -0.1150 
     27 C          -1.8724    0.1828    9.2159 C.ar      1 ****       -0.1150 
     28 C          -2.3032    2.9378    9.5472 C.ar      1 ****       -0.1150 
     29 H          -4.3665    2.4273    9.8408 H         1 ****        0.1150 
     30 C          -0.7889    1.0774    9.1522 C.ar      1 ****       -0.1150 
     31 H          -1.6790   -0.8688    9.0606 H         1 ****        0.1150 
     32 C          -1.0055    2.4588    9.2969 C.ar      1 ****       -0.1150 
     33 H          -2.4741    3.9971    9.6742 H         1 ****        0.1150 
     34 H           0.2061    0.7020    8.9614 H         1 ****        0.1150 
     35 H          -0.1735    3.1454    9.2282 H         1 ****        0.1150 
     36 H          -9.3544   -1.5275   11.9184 H         1 ****        0.0600 
     37 H          -9.0790   -2.1929   13.5154 H         1 ****        0.0600 
     38 H          -7.0507   -2.3637   12.0179 H         1 ****        0.0600 
     39 H          -7.5663   -3.8998   12.6420 H         1 ****        0.0600 
     40 H         -13.4686   -3.5720   13.2076 H         1 ****       -0.0320 
     41 C         -12.6197   -6.7379    9.6870 C.3       1 ****        0.0900 
     42 C         -10.6796   -7.5856   10.9951 C.3       1 ****        0.0900 
     43 C         -13.5494   -7.7628   10.3511 C.3       1 ****       -0.1200 
     44 H         -12.2349   -7.1444    8.7522 H         1 ****        0.0600 
     45 H         -13.1616   -5.8229    9.4400 H         1 ****        0.0600 
     46 C         -11.5684   -8.6856   11.6144 C.3       1 ****       -0.1200 
     47 H         -10.1233   -7.9627   10.1379 H         1 ****        0.0600 
     48 H          -9.9404   -7.2714   11.7315 H         1 ****        0.0600 
     49 H         -14.3796   -7.9955    9.6819 H         1 ****        0.0600 
     50 H         -13.9833   -7.3205   11.2491 H         1 ****        0.0600 
     51 H         -10.9585   -9.5656   11.8113 H         1 ****        0.0600 
     52 H         -11.9318   -8.3629   12.5902 H         1 ****        0.0600 
     53 N         -11.4671   -6.4507   10.5283 N.pl3     1 ****       -0.6200 
     54 C         -12.7719   -9.0452   10.7160 C.3       1 ****       -0.0600 
     55 H         -12.3943   -9.4895    9.7951 H         1 ****        0.0600 
     56 C         -13.6711  -10.0916   11.3917 C.2       1 ****        0.4700 
     57 O         -14.7678   -9.7925   11.8675 O.2       1 ****       -0.4700 
     58 C         -13.1308  -11.5230   11.4625 C.3       1 ****       -0.1200 
     59 C         -14.1758  -12.5464   11.9392 C.3       1 ****       -0.1200 
     60 H         -12.7592  -11.8041   10.4768 H         1 ****        0.0600 
     61 H         -12.2740  -11.5332   12.1365 H         1 ****        0.0600 
     62 C         -13.5871  -13.9528   12.0707 C.3       1 ****       -0.1800 
     63 H         -14.5813  -12.2407   12.9055 H         1 ****        0.0600 
     64 H         -15.0164  -12.5680   11.2433 H         1 ****        0.0600 
     65 H         -14.3469  -14.6639   12.3935 H         1 ****        0.0600 
     66 H         -13.1813  -14.3044   11.1223 H         1 ****        0.0600 
     67 H         -12.7844  -13.9636   12.8068 H         1 ****        0.0600 
@<TRIPOS>BOND
     1    1    5 ar   
     2    1    6 ar   
     3    1   40 1    
     4    2    3 ar   
     5    2    5 ar   
     6    2   11 1    
     7    3    4 ar   
     8    3    8 1    
     9    4    6 ar   
    10    4   53 1    
    11    7    8 1    
    12    7   12 1    
    13    7   22 am   BACKBONE|DICT|INTERRES
    14    8    9 1    
    15    8   10 1    
    16   11   12 1    
    17   11   36 1    
    18   11   37 1    
    19   12   38 1    
    20   12   39 1    
    21   13   14 ar   
    22   13   15 ar   
    23   13   22 1    
    24   14   16 ar   
    25   14   24 1    
    26   15   17 ar   
    27   15   18 1    
    28   16   19 ar   
    29   16   21 1    
    30   17   19 ar   
    31   17   20 1    
    32   19   25 1    
    33   22   23 2    
    34   25   26 ar   
    35   25   27 ar   
    36   26   28 ar   
    37   26   29 1    
    38   27   30 ar   
    39   27   31 1    
    40   28   32 ar   
    41   28   33 1    
    42   30   32 ar   
    43   30   34 1    
    44   32   35 1    
    45   41   43 1    
    46   41   44 1    
    47   41   45 1    
    48   41   53 1    
    49   42   46 1    
    50   42   47 1    
    51   42   48 1    
    52   42   53 1    
    53   43   49 1    
    54   43   50 1    
    55   43   54 1    
    56   46   51 1    
    57   46   52 1    
    58   46   54 1    
    59   54   55 1    
    60   54   56 1    
    61   56   57 2    
    62   56   58 1    
    63   58   59 1    
    64   58   60 1    
    65   58   61 1    
    66   59   62 1    
    67   59   63 1    
    68   59   64 1    
    69   62   65 1    
    70   62   66 1    
    71   62   67 1    
@<TRIPOS>SUBSTRUCTURE
     1 ****        1 GROUP             0       ****    0 ROOT    
